Version 4
SHEET 1 1128 680
WIRE 336 -192 272 -192
WIRE 272 -176 272 -192
WIRE 704 -128 704 -176
WIRE 704 -128 560 -128
WIRE 336 -64 112 -64
WIRE 704 -64 704 -128
WIRE 704 -64 560 -64
WIRE 112 -48 112 -64
WIRE 624 0 560 0
WIRE 624 96 624 0
WIRE 704 96 704 -64
WIRE 112 144 112 32
WIRE 704 160 624 160
WIRE 704 256 704 160
FLAG 272 -176 0
FLAG -208 -128 5V
FLAG -208 -48 0
FLAG -208 -240 0
FLAG -208 -320 9V
FLAG 560 -192 9V
FLAG 112 144 0
FLAG 704 256 0
FLAG 704 -256 9V
FLAG 336 -128 5V
FLAG 112 -64 OUT
SYMBOL voltage -208 -144 R0
WINDOW 123 0 0 Left 0
WINDOW 39 0 0 Left 0
SYMATTR InstName V1
SYMATTR Value PULSE(8 0 0.5 0 0 20u)
SYMBOL Misc\\NE555 448 -96 R0
SYMATTR InstName U1
SYMBOL voltage -208 -336 R0
WINDOW 123 0 0 Left 0
WINDOW 39 0 0 Left 0
SYMATTR InstName V2
SYMATTR Value 9
SYMBOL res 96 -64 R0
SYMATTR InstName R2
SYMATTR Value 5k
SYMBOL res 688 -272 R0
SYMATTR InstName R3
SYMATTR Value 100k
SYMBOL cap 608 96 R0
SYMATTR InstName C1
SYMATTR Value 0.01µ
SYMBOL cap 688 96 R0
SYMATTR InstName C2
SYMATTR Value 0.5µ
TEXT 64 296 Left 2 !.tran 5
TEXT 800 -64 Left 2 ;time delay t = 1.1 * R3 * C2
