Version 4
SHEET 1 2356 1044
WIRE 1664 -528 -192 -528
WIRE 672 -448 608 -448
WIRE 832 -448 736 -448
WIRE 1232 -384 1168 -384
WIRE 1344 -384 1296 -384
WIRE 608 -352 608 -448
WIRE 672 -352 608 -352
WIRE 832 -352 832 -448
WIRE 832 -352 752 -352
WIRE 1168 -272 1168 -384
WIRE 1232 -272 1168 -272
WIRE 1344 -272 1344 -384
WIRE 1344 -272 1312 -272
WIRE 224 -176 -16 -176
WIRE 608 -176 608 -352
WIRE 608 -176 224 -176
WIRE 672 -176 608 -176
WIRE 832 -160 832 -352
WIRE 832 -160 736 -160
WIRE 976 -160 832 -160
WIRE 1168 -160 1168 -272
WIRE 1232 -160 1184 -160
WIRE 672 -144 608 -144
WIRE 1344 -144 1344 -272
WIRE 1344 -144 1296 -144
WIRE 1392 -144 1344 -144
WIRE 1488 -144 1392 -144
WIRE 1168 -128 1168 -160
WIRE 1232 -128 1168 -128
WIRE 1184 -112 1184 -160
WIRE 608 -80 608 -144
WIRE 224 -32 224 -176
WIRE -16 -16 -16 -176
WIRE 752 64 608 64
WIRE 816 64 752 64
WIRE -16 80 -16 64
WIRE 224 80 224 32
WIRE 224 80 -16 80
WIRE 752 128 752 64
WIRE 608 144 608 64
WIRE -16 160 -16 80
WIRE 752 208 608 208
WIRE 608 320 608 208
WIRE -192 448 -192 -528
WIRE 1664 448 1664 -528
WIRE 1664 448 -192 448
WIRE 816 528 -192 528
WIRE 1664 528 1104 528
WIRE 1232 624 1216 624
WIRE 224 672 208 672
WIRE 208 688 208 672
WIRE 1216 688 1216 624
WIRE 496 736 448 736
WIRE 672 736 672 672
WIRE 672 736 496 736
WIRE 1440 784 1440 704
WIRE 1568 784 1440 784
WIRE 224 800 48 800
WIRE 496 800 496 736
WIRE 496 800 448 800
WIRE 1440 832 1440 784
WIRE 48 864 48 800
WIRE 544 864 448 864
WIRE 544 896 544 864
WIRE 1440 960 1440 928
WIRE -192 1040 -192 528
WIRE 816 1040 816 528
WIRE 816 1040 -192 1040
WIRE 1104 1040 1104 528
WIRE 1664 1040 1664 528
WIRE 1664 1040 1104 1040
FLAG -16 160 0
FLAG 320 -304 0
FLAG 320 -384 9V
FLAG 704 -192 9V
FLAG 704 -128 0
FLAG 976 -160 v1
FLAG -16 -176 Vin
FLAG 608 -80 Vref
FLAG 608 320 0
FLAG 896 64 9V
FLAG 608 64 Vref
FLAG 1264 -112 0
FLAG 1264 -176 9V
FLAG 1184 -112 0
FLAG 1104 -160 v1
FLAG 208 688 0
FLAG 48 944 0
FLAG 544 960 0
FLAG 672 800 0
FLAG 224 736 v2
FLAG 48 800 Vout
FLAG 224 864 9V
FLAG 448 672 9V
FLAG 672 592 9V
FLAG 1568 -144 v2
FLAG 1392 -144 Vtest
FLAG 1440 960 0
FLAG 1296 880 Vout
FLAG 1568 784 shutter
FLAG 1232 624 3V
FLAG 1216 768 0
FLAG 1440 624 3V
SYMBOL current -16 -16 R0
WINDOW 0 24 80 Left 2
WINDOW 3 16 119 Left 2
WINDOW 123 0 0 Left 0
WINDOW 39 0 0 Left 0
SYMATTR InstName I1
SYMATTR Value PULSE(10n 0.6u 5m 50n 50n 10m 30m 3)
SYMBOL cap 208 -32 R0
SYMATTR InstName C1
SYMATTR Value 150p
SYMBOL OpAmps\\LM741 704 -224 R0
SYMATTR InstName U1
SYMBOL voltage 320 -400 R0
WINDOW 123 0 0 Left 0
WINDOW 39 24 44 Left 2
SYMATTR SpiceLine Rser=1
SYMATTR InstName V1
SYMATTR Value 9
SYMBOL res 768 -368 R90
WINDOW 0 0 56 VBottom 2
WINDOW 3 32 56 VTop 2
SYMATTR InstName R1
SYMATTR Value 10200k
SYMBOL cap 736 -464 R90
WINDOW 0 0 32 VBottom 2
WINDOW 3 32 32 VTop 2
SYMATTR InstName C2
SYMATTR Value 3.3p
SYMBOL res 736 112 R0
SYMATTR InstName R3
SYMATTR Value 280
SYMBOL res 912 48 R90
WINDOW 0 0 56 VBottom 2
WINDOW 3 32 56 VTop 2
SYMATTR InstName R4
SYMATTR Value 13.7k
SYMBOL cap 592 144 R0
SYMATTR InstName C3
SYMATTR Value 1µ
SYMBOL OpAmps\\LM741 1264 -208 R0
SYMATTR InstName U3
SYMBOL cap 1296 -400 R90
WINDOW 0 0 32 VBottom 2
WINDOW 3 32 32 VTop 2
SYMATTR InstName C5
SYMATTR Value 4.7n
SYMBOL res 1328 -288 R90
WINDOW 0 0 56 VBottom 2
WINDOW 3 32 56 VTop 2
SYMATTR InstName R5
SYMATTR Value 10k
SYMBOL cap 1168 -176 R90
WINDOW 0 0 32 VBottom 2
WINDOW 3 32 32 VTop 2
SYMATTR InstName C4
SYMATTR Value 47n
SYMBOL Misc\\NE555 336 768 R0
SYMATTR InstName U2
SYMBOL res 32 848 R0
SYMATTR InstName R2
SYMATTR Value 10k
SYMBOL cap 528 896 R0
SYMATTR InstName C6
SYMATTR Value 0.01µ
SYMBOL cap 656 736 R0
SYMATTR InstName C7
SYMATTR Value 47n
SYMBOL res 656 576 R0
SYMATTR InstName R6
SYMATTR Value 220k
SYMBOL res 1584 -160 R90
WINDOW 0 0 56 VBottom 2
WINDOW 3 32 56 VTop 2
SYMATTR InstName R8
SYMATTR Value 10k
SYMBOL Contrib\\Toshiba\\bjt\\TMBT3904 1376 832 R0
SYMATTR InstName U4
SYMBOL res 1392 864 R90
WINDOW 0 0 56 VBottom 2
WINDOW 3 32 56 VTop 2
SYMATTR InstName R7
SYMATTR Value 10k
SYMBOL voltage 1216 672 R0
WINDOW 123 0 0 Left 0
WINDOW 39 0 0 Left 0
SYMATTR InstName V2
SYMATTR Value 3V
SYMBOL res 1424 608 R0
SYMATTR InstName R9
SYMATTR Value 1k
TEXT -8 280 Left 2 !.tran 20m
TEXT -176 552 Left 2 ;555 Timer Debouncer
TEXT -160 -496 Left 2 ;2-stage ampplifier
TEXT 1120 552 Left 2 ;Shutter Driver
TEXT 584 24 Left 2 ;Vref= 0.18V
TEXT -8 304 Left 2 !.meas
