Version 4
SHEET 1 880 680
WIRE 768 -288 544 -288
WIRE 544 -208 544 -288
WIRE 624 -208 544 -208
WIRE 768 -192 768 -288
WIRE 768 -192 688 -192
WIRE -16 -176 -16 -256
WIRE 224 -176 -16 -176
WIRE 624 -176 224 -176
WIRE -16 -96 -16 -176
WIRE 224 -96 224 -176
WIRE -16 16 -16 -16
WIRE 224 16 224 -32
WIRE 224 16 -16 16
WIRE -16 96 -16 16
FLAG -16 96 0
FLAG -208 -416 0
FLAG -208 -496 9V
FLAG -16 -336 9V
FLAG 656 -224 9V
FLAG 656 -160 0
FLAG 768 -288 Vout
FLAG -16 -176 Vin
SYMBOL current -16 -96 R0
WINDOW 0 24 80 Left 2
WINDOW 3 24 0 Left 2
WINDOW 123 0 0 Left 0
WINDOW 39 0 0 Left 0
SYMATTR InstName I1
SYMATTR Value PULSE(10n 0.7u 5m 50n 50n 10m 30m 3)
SYMBOL cap 208 -96 R0
SYMATTR InstName C1
SYMATTR Value 150p
SYMBOL OpAmps\\LM741 656 -256 R0
SYMATTR InstName U1
SYMBOL voltage -208 -512 R0
WINDOW 123 0 0 Left 0
WINDOW 39 24 44 Left 2
SYMATTR SpiceLine Rser=1
SYMATTR InstName V1
SYMATTR Value 9
SYMBOL res -32 -352 R0
SYMATTR InstName R2
SYMATTR Value 10000k
TEXT 136 224 Left 2 !.tran 20m
